!!!!!!!!!!!!!!!!!!!!!!!!!!!!!!!!!!!!!!!!!!!!!!!!!!!!!!!!!!!!!!!!!!!!!!!!!!!!!!!!!!!!!!!!!!!!!!!!!!!!!!!!!!!!!!!!!!!!!!!!!!!!!!!!!!!!!!!!!!!!!!!!!!!!!!
!MATERIAL:     EN-AW-7075
!REFERENCE:    JMatPro Thermo-physical & physical properties, 2019
!AUTHOR:       Johannes Vinz (2019)
!!!!!!!!!!!!!!!!!!!!!!!!!!!!!!!!!!!!!!!!!!!!!!!!!!!!!!!!!!!!!!!!!!!!!!!!!!!!!!!!!!!!!!!!!!!!!!!!!!!!!!!!!!!!!!!!!!!!!!!!!!!!!!!!!!!!!!!!!!!!!!!!!!!!!!

Temperature	Density
[K]	[kg/[m]^3]
298	2801.05
333	2794.35
373	2786.44
403	2780.36
433	2774.15
473	2765.68
503	2759.18
533	2752.55
573	2743.53
603	2736.62
633	2729.59
673	2720.03
703	2712.72
733	2705.3
753	2682.97
758	2681.38
763	2679.77
768	2678.11
773	2676.41
778	2674.65
# ... 40 like lines cut
