!!!!!!!!!!!!!!!!!!!!!!!!!!!!!!!!!!!!!!!!!!!!!!!!!!!!!!!!!!!!!!!!!!!!!!!!!!!!!!!!!!!!!!!!!!!!!!!!!!!!!!!!!!!!!!!!!!!!!!!!!!!!!!!!!!!!!!!!!!!!!!!!!!!!!!
!MATERIAL:     EN-AW-7075
!REFERENCE:    JMatPro Thermo-physical & physical properties, 2019
!AUTHOR:       Johannes Vinz (2019)
!!!!!!!!!!!!!!!!!!!!!!!!!!!!!!!!!!!!!!!!!!!!!!!!!!!!!!!!!!!!!!!!!!!!!!!!!!!!!!!!!!!!!!!!!!!!!!!!!!!!!!!!!!!!!!!!!!!!!!!!!!!!!!!!!!!!!!!!!!!!!!!!!!!!!!

Temperature	Thermal conductivity
[K]	[W/[m*K]]
298	120.58453
333	126.71393
373	132.80977
403	136.87591
433	140.59222
473	145.09101
503	148.16932
533	151.02224
573	154.50553
603	156.89325
633	159.09747
673	161.75993
703	163.55341
733	165.17437
753	159.72455
758	159.68703
763	159.61744
768	159.51155
773	159.36379
778	159.1671
# ... 40 like lines cut
