!!!!!!!!!!!!!!!!!!!!!!!!!!!!!!!!!!!!!!!!!!!!!!!!!!!!!!!!!!!!!!!!!!!!!!!!!!!!!!!!!!!!!!!!!!!!!!!!!!!!!!!!!!!!!!!!!!!!!!!!!!!!!!!!!!!!!!!!!!!!!!!!!!!!!!
!MATERIAL:     EN-AW-7075
!REFERENCE:    JMatPro Thermo-physical & physical properties, 2019
!AUTHOR:       Johannes Vinz (2019)
!!!!!!!!!!!!!!!!!!!!!!!!!!!!!!!!!!!!!!!!!!!!!!!!!!!!!!!!!!!!!!!!!!!!!!!!!!!!!!!!!!!!!!!!!!!!!!!!!!!!!!!!!!!!!!!!!!!!!!!!!!!!!!!!!!!!!!!!!!!!!!!!!!!!!!

Temperature	Young's modulus
[K]	[Pa]
298	6.840486e+10
333	6.723013e+10
373	6.581241e+10
403	6.470042e+10
433	6.354667e+10
473	6.194336e+10
503	6.069211e+10
533	5.939905e+10
573	5.760987e+10
603	5.621914e+10
633	5.478651e+10
673	5.28111e+10
703	5.128057e+10
733	4.970802e+10
753	3.60814e+10
758	3.552327e+10
763	3.49365e+10
768	3.431694e+10
773	3.36593e+10
778	3.295661e+10
# ... 40 like lines cut
