!!!!!!!!!!!!!!!!!!!!!!!!!!!!!!!!!!!!!!!!!!!!!!!!!!!!!!!!!!!!!!!!!!!!!!!!!!!!!!!!!!!!!!!!!!!!!!!!!!!!!!!!!!!!!!!!!!!!!!!!!!!!!!!!!!!!!!!!!!!!!!!!!!!!!!
!MATERIAL:     EN-AW-7075
!REFERENCE:    JMatPro Thermo-physical & physical properties, 2019
!AUTHOR:       Johannes Vinz (2019)
!!!!!!!!!!!!!!!!!!!!!!!!!!!!!!!!!!!!!!!!!!!!!!!!!!!!!!!!!!!!!!!!!!!!!!!!!!!!!!!!!!!!!!!!!!!!!!!!!!!!!!!!!!!!!!!!!!!!!!!!!!!!!!!!!!!!!!!!!!!!!!!!!!!!!!

Temperature	Thermal expansion
[K]	[1/K]
298	nan
333	2.293465e-05
373	2.334492e-05
403	2.365397e-05
433	2.396419e-05
473	2.43796e-05
503	2.469252e-05
533	2.500659e-05
573	2.542715e-05
603	2.574393e-05
633	2.606186e-05
673	2.648757e-05
703	2.680821e-05
733	2.713e-05
753	3.237292e-05
758	3.248018e-05
763	3.259559e-05
768	3.272042e-05
773	3.285567e-05
778	3.300545e-05
783	3.316969e-05
# ... 39 like lines cut
