!!!!!!!!!!!!!!!!!!!!!!!!!!!!!!!!!!!!!!!!!!!!!!!!!!!!!!!!!!!!!!!!!!!!!!!!!!!!!!!!!!!!!!!!!!!!!!!!!!!!!!!!!!!!!!!!!!!!!!!!!!!!!!!!!!!!!!!!!!!!!!!!!!!!!!
!MATERIAL:     EN-AW-7075
!REFERENCE:    JMatPro Thermo-physical & physical properties, 2019
!AUTHOR:       Johannes Vinz (2019)
!!!!!!!!!!!!!!!!!!!!!!!!!!!!!!!!!!!!!!!!!!!!!!!!!!!!!!!!!!!!!!!!!!!!!!!!!!!!!!!!!!!!!!!!!!!!!!!!!!!!!!!!!!!!!!!!!!!!!!!!!!!!!!!!!!!!!!!!!!!!!!!!!!!!!!

Temperature	Specific Heat
[K]	[J/kg K]
298	nan
333	886.2
373	906.
403	919.4
433	932.4
473	948.8
503	961.
533	973.
573	989.
603	1001.2
633	1013.4
673	1030.
703	1043.
733	1057.4
753	1281.
758	1302.2
763	1326.6
768	1355.
773	1388.4
778	1428.2
783	1475.8
# ... 38 like lines cut
3273	nan
