!!!!!!!!!!!!!!!!!!!!!!!!!!!!!!!!!!!!!!!!!!!!!!!!!!!!!!!!!!!!!!!!!!!!!!!!!!!!!!!!!!!!!!!!!!!!!!!!!!!!!!!!!!!!!!!!!!!!!!!!!!!!!!!!!!!!!!!!!!!!!!!!!!!!!!
!MATERIAL:     EN-AW-7075
!REFERENCE:    JMatPro Thermo-physical & physical properties, 2019
!AUTHOR:       Johannes Vinz (2019)
!!!!!!!!!!!!!!!!!!!!!!!!!!!!!!!!!!!!!!!!!!!!!!!!!!!!!!!!!!!!!!!!!!!!!!!!!!!!!!!!!!!!!!!!!!!!!!!!!!!!!!!!!!!!!!!!!!!!!!!!!!!!!!!!!!!!!!!!!!!!!!!!!!!!!!

Temperature	Fraction liquid
[K]	[wt]
298	0.
333	0.
373	0.
403	0.
433	0.
473	0.
503	0.
533	0.
573	0.
603	0.
633	0.
673	0.
703	0.
733	0.
753	0.0812052
758	0.0834047
763	0.0858152
768	0.0884699
773	0.0914141
778	0.0947002
# ... 40 like lines cut
