!!!!!!!!!!!!!!!!!!!!!!!!!!!!!!!!!!!!!!!!!!!!!!!!!!!!!!!!!!!!!!!!!!!!!!!!!!!!!!!!!!!!!!!!!!!!!!!!!!!!!!!!!!!!!!!!!!!!!!!!!!!!!!!!!!!!!!!!!!!!!!!!!!!!!!
!MATERIAL:     EN-AW-7075
!REFERENCE:    JMatPro Thermo-physical & physical properties, 2019
!AUTHOR:       Johannes Vinz (2019)
!!!!!!!!!!!!!!!!!!!!!!!!!!!!!!!!!!!!!!!!!!!!!!!!!!!!!!!!!!!!!!!!!!!!!!!!!!!!!!!!!!!!!!!!!!!!!!!!!!!!!!!!!!!!!!!!!!!!!!!!!!!!!!!!!!!!!!!!!!!!!!!!!!!!!!

Temperature	Electrical resistivity
[K]	[Ohm*m]
298	5.6765e-08
333	6.03148e-08
373	6.44587e-08
403	6.75852e-08
433	7.07156e-08
473	7.48883e-08
503	7.80165e-08
533	8.1146e-08
573	8.53278e-08
603	8.84779e-08
633	9.16468e-08
673	9.59138e-08
703	9.91555e-08
733	1.0244e-07
753	1.1236e-07
758	1.1314e-07
763	1.1394e-07
768	1.1477e-07
773	1.1563e-07
778	1.1654e-07
# ... 40 like lines cut
