!!!!!!!!!!!!!!!!!!!!!!!!!!!!!!!!!!!!!!!!!!!!!!!!!!!!!!!!!!!!!!!!!!!!!!!!!!!!!!!!!!!!!!!!!!!!!!!!!!!!!!!!!!!!!!!!!!!!!!!!!!!!!!!!!!!!!!!!!!!!!!!!!!!!!!
!MATERIAL:     EN-AW-7075
!REFERENCE:    JMatPro Thermo-physical & physical properties, 2019
!AUTHOR:       Johannes Vinz (2019)
!!!!!!!!!!!!!!!!!!!!!!!!!!!!!!!!!!!!!!!!!!!!!!!!!!!!!!!!!!!!!!!!!!!!!!!!!!!!!!!!!!!!!!!!!!!!!!!!!!!!!!!!!!!!!!!!!!!!!!!!!!!!!!!!!!!!!!!!!!!!!!!!!!!!!!

Temperature	Poisson's ratio
[K]	[/1]
298	0.33569
333	0.33704
373	0.3387
403	0.34003
433	0.34142
473	0.34339
503	0.34494
533	0.34656
573	0.34882
603	0.3506
633	0.35244
673	0.35501
703	0.35701
733	0.35908
753	0.37173
758	0.3724
763	0.3731
768	0.37384
773	0.37462
778	0.37545
# ... 40 like lines cut
