!!!!!!!!!!!!!!!!!!!!!!!!!!!!!!!!!!!!!!!!!!!!!!!!!!!!!!!!!!!!!!!!!!!!!!!!!!!!!!!!!!!!!!!!!!!!!!!!!!!!!!!!!!!!!!!!!!!!!!!!!!!!!!!!!!!!!!!!!!!!!!!!!!!!!!
!MATERIAL:     EN-AW-7075
!REFERENCE:    JMatPro Thermo-physical & physical properties, 2019
!AUTHOR:       Johannes Vinz (2019)
!!!!!!!!!!!!!!!!!!!!!!!!!!!!!!!!!!!!!!!!!!!!!!!!!!!!!!!!!!!!!!!!!!!!!!!!!!!!!!!!!!!!!!!!!!!!!!!!!!!!!!!!!!!!!!!!!!!!!!!!!!!!!!!!!!!!!!!!!!!!!!!!!!!!!!

Temperature	Liquid viscosity
[K]	[mPa*s]
298	nan
333	nan
373	nan
403	nan
433	nan
473	nan
503	nan
533	nan
573	nan
603	nan
633	nan
673	nan
703	nan
733	nan
753	0.00317162
758	0.00308727
763	0.00300527
768	0.0029255
773	0.00284781
778	0.0027721
783	0.00269817
788	0.00262597
793	0.00255533
798	0.00248613
803	0.00241825
808	0.00235157
813	0.00228596
818	0.0022264
823	0.00217147
828	0.00211807
833	0.00206615
838	0.0020157
843	0.00196668
848	0.00191907
# ... 26 like lines cut
