!!!!!!!!!!!!!!!!!!!!!!!!!!!!!!!!!!!!!!!!!!!!!!!!!!!!!!!!!!!!!!!!!!!!!!!!!!!!!!!!!!!!!!!!!!!!!!!!!!!!!!!!!!!!!!!!!!!!!!!!!!!!!!!!!!!!!!!!!!!!!!!!!!!!!!
!MATERIAL:     EN-AW-7075
!REFERENCE:    JMatPro Thermo-physical & physical properties, 2019
!AUTHOR:       Johannes Vinz (2019)
!!!!!!!!!!!!!!!!!!!!!!!!!!!!!!!!!!!!!!!!!!!!!!!!!!!!!!!!!!!!!!!!!!!!!!!!!!!!!!!!!!!!!!!!!!!!!!!!!!!!!!!!!!!!!!!!!!!!!!!!!!!!!!!!!!!!!!!!!!!!!!!!!!!!!!

Temperature	Specific enthalpy
[K]	[J/kg]
298	-10033.
333	20456.
373	56255.
403	83605.
433	111352.
473	148938.
503	177556.
533	206535.
573	245735.
603	275557.
633	305744.
673	346570.
703	377630.
733	409094.
753	468465.
758	474870.
763	481381.
768	488014.
773	494789.
778	501731.
# ... 40 like lines cut
